22
Coordinates from ORCA-job cis_endo_TS
  C   -2.40476782586864      4.17875804112660     -0.76197607125766
  C   -3.26841425524092      3.19378961565156     -0.01300975603437
  C   -2.42863996866412      2.13353863852462      0.35237216469329
  H   -4.12089103051748      3.49921632188227      0.57581123727200
  C   -1.26777899818959      2.17358683943626     -0.42564281028238
  H   -2.69156678157680      1.34462373860189      1.04103862635255
  C   -1.33444206691975      3.26558462857531     -1.26943594934398
  H   -0.51053629294263      1.40536119817026     -0.45324464865770
  H   -0.57611212941483      3.55954130105160     -1.97869305255776
  H   -1.95095138713046      4.85526671627690     -0.02775253382742
  H   -2.90992805412667      4.77838156812614     -1.51126194850108
  C   -3.14418636915129      2.39112452212082     -2.63303678196406
  C   -4.15118387150145      2.45049247647618     -1.67374429168357
  H   -4.87990860847807      3.24709753813741     -1.73413912618045
  H   -4.52120530216100      1.51885077273490     -1.27286937748333
  C   -2.43373393869840      1.15476450688714     -2.87508116981260
  H   -2.97454513813053      3.21014495612672     -3.31522369970220
  O   -2.65909097957588      0.13068753520198     -2.22643400480114
  C   -1.36001547079682      1.14232415876071     -3.93628221954884
  H   -1.31354387353520      2.07618971490440     -4.49088655887259
  H   -1.54290520279477      0.31577329143810     -4.62206240447813
  H   -0.39726661888476      0.96584720158830     -3.45558549902854
