6
Coordinates from ORCA-job sn2_nebts_NEB-CI_converged
  C   0.02394151244587     -0.02273675265530      0.05167818806821
  F   -0.65299103371021      0.72656624059729     -1.73488992550113
  Cl  0.68562794924814     -0.78844305036752      1.89308430540763
  H   0.99880860408280      0.16036474652930     -0.38536247269303
  H   -0.52740777250600      0.82166542425637      0.44671920342826
  H   -0.52797925956060     -0.89741660836014     -0.27122929870995