22
Coordinates from ORCA-job TS_VP4HBa_ll_ad_2-7_3-4_optts_orca
  C   2.59461966299937      1.08481991931654      0.30322019269454
  C   1.51213860390981      0.57922739007157     -0.62361967523965
  C   0.95882520364468     -0.75225120965071     -0.38581474966688
  C   -0.00000244801284     -1.22982570870931     -1.26814329962846
  C   -1.84397121169085     -0.69668595819569     -0.43803328690596
  C   -1.80809682617079      0.69906960141295     -0.52499184499209
  C   -1.07525274232074      1.20778382163367      0.56811569617808
  C   -0.67789152535715      0.15917337884417      1.37113804632906
  C   -1.45177176208946     -1.05407509868428      0.97298737251883
  O   1.07949569576168      1.28958670354167     -1.51916203433648
  H   3.28540772127302      1.72659382119108     -0.26084616638799
  H   2.12774899278359      1.70558256257566      1.08511471830631
  H   3.14953095260079      0.27553804192330      0.79933027582091
  H   1.38498822984424     -1.38133052179147      0.39828403302150
  H   -0.11448608641382     -0.68583581584856     -2.20779188344872
  H   -0.23216058030923     -2.29751788089608     -1.29528267343369
  H   -2.51223527733119     -1.31777193042378     -1.03911303606048
  H   -2.17710150568475      1.29122207022919     -1.36279261952707
  H   -0.77423749029548      2.24907116572024      0.69064284621928
  H   -0.10615258278262      0.24979690558692      2.29603818405984
  H   -0.94079146630733     -2.01653621410961      1.10858824970769
  H   -2.37840362805092     -1.08553511373749      1.58073170477144
