22
Coordinates from ORCA-job cis_endo_TS
  C   -2.45625042994264      4.22697136718373     -0.69050566209957
  C   -3.28702195379458      3.16527993919028     -0.02209098677282
  C   -2.41028766314595      2.14322126716790      0.34022614745311
  H   -4.18631817798479      3.39651295844350      0.53629598217147
  C   -1.20817318676536      2.29480857602016     -0.36982113539345
  H   -2.66413749952356      1.29424573410959      0.95978388172974
  C   -1.28146913102924      3.42909805269927     -1.13984450034102
  H   -0.40867019996620      1.56728893158943     -0.38835776572309
  H   -0.50683361420779      3.80598439935262     -1.79369703691900
  H   -2.11400085795616      4.92541367601641      0.08909189132240
  H   -2.95734970838890      4.81263532467316     -1.45923411982257
  C   -3.10205484705813      2.37368598258547     -2.68346342635020
  C   -4.11637859827911      2.44256568361059     -1.74418593887422
  H   -4.85151124593427      3.23644849500096     -1.82006001153415
  H   -4.47736922293900      1.50457689648386     -1.33925710572378
  C   -2.36389642614390      1.13176739960370     -2.83295879682348
  H   -2.91472881437345      3.18240648333903     -3.37940748993174
  O   -2.50989176905760      0.20606095908980     -2.04760734145413
  C   -1.42166214759852      1.00292166731278     -4.00365141692310
  H   -1.03881265683699      1.96596828196554     -4.34659501197343
  H   -1.96765811314529      0.54168812578948     -4.83288296604129
  H   -0.59713790022863      0.34139508057279     -3.73891706567561
