22
Coordinates from ORCA-job cis_endo_TS
  C   -2.45916198039135      4.23625428848756     -0.68443051791989
  C   -3.30724428191780      3.17306340593524     -0.03018689926151
  C   -2.42927318853393      2.16086017997894      0.36504416110616
  H   -4.20494170131777      3.41404081820002      0.52586283684424
  C   -1.22194515692719      2.30149810087639     -0.32995989049500
  H   -2.69270464671053      1.32382434980323      0.99576109656134
  C   -1.29340435330047      3.41708926722411     -1.13078021114416
  H   -0.42080985262612      1.57667060056315     -0.32571937019656
  H   -0.51017444669613      3.78700202675678     -1.77763363864295
  H   -2.10854843422867      4.92168863286099      0.09867158195766
  H   -2.95081440146019      4.82885118621772     -1.45237117780753
  C   -3.05612207793502      2.38006155156123     -2.65676136632803
  C   -4.08125544697042      2.43857125270586     -1.72115923150562
  H   -4.83203766328172      3.21342545403628     -1.82683441393420
  H   -4.45152115382227      1.49502950696877     -1.33882022192111
  C   -2.34247097794300      1.12627760809051     -2.84773811615322
  H   -2.88820421631018      3.18135181899255     -3.36459002907883
  O   -2.48034413047616      0.18915314829056     -2.07742438281692
  C   -1.43642727309939      0.99838303280899     -4.05243994826895
  H   -1.09072178922283      1.96104869022091     -4.43233743103017
  H   -1.99912254844589      0.49715025911794     -4.84435041260005
  H   -0.58436444268303      0.36965010210232     -3.79894229306464
